Circuit: * C:\Users\victo\Desktop\GA-with-LTSpice-Tutorial\Tutorial\Sims\sims_comparator\comparator_99.asc

Instance "m2": Length shorter than recommended for a level 1 MOSFET.
Instance "m2": Width narrower than recommended for a level 1 MOSFET.
Instance "m1": Length shorter than recommended for a level 1 MOSFET.
Instance "m1": Width narrower than recommended for a level 1 MOSFET.
V3: Missing value, assumed 0V @ DC

Date: Mon Sep 18 16:16:51 2023
Total elapsed time: 0.037 seconds.

tnom = 27
temp = 27
method = trap
totiter = 393
traniter = 0
tranpoints = 0
accept = 0
rejected = 0
matrix size = 7
fillins = 0
solver = Normal
Matrix Compiler1: 232 bytes object code size  0.1/0.1/[0.0]
Matrix Compiler2: 449 bytes object code size  0.1/0.1/[0.0]

