Circuit: * C:\Users\victo\Desktop\GA-with-LTSpice-Tutorial\Tutorial\Circs\comparator.asc

Instance "m2": Length shorter than recommended for a level 1 MOSFET.
Instance "m2": Width narrower than recommended for a level 1 MOSFET.
Instance "m1": Length shorter than recommended for a level 1 MOSFET.
Instance "m1": Width narrower than recommended for a level 1 MOSFET.
V3: Missing value, assumed 0V @ DC
.step n=1
.step n=2

Date: Mon Sep 18 15:24:45 2023
Total elapsed time: 0.170 seconds.

tnom = 27
temp = 27
method = trap
totiter = 397
traniter = 0
tranpoints = 0
accept = 0
rejected = 0
matrix size = 7
fillins = 0
solver = Normal
Matrix Compiler1:      14 opcodes  0.1/[0.0]/0.0
Matrix Compiler2: 449 bytes object code size  0.1/0.1/[0.0]

